power-flow-agent/results/ieee300/2026-09-29/gpt-5.6-sol/llm_only_structured/traces/19_case300-plain-012-s0.transcript.txt
==============================================================================
TRANSCRIPT  llm_only:structured  |  openrouter:openai/gpt-5.6-sol  |  case300  |  case300-plain-012-s0  run 0
==============================================================================
date: 2026-09-29   seed: 0   difficulty: plain   tool variant: load_split

[system]   (hash 183abd966fbd, from methods/llm_only_structured/method.json prompt_files)
You are a power system power-flow analysis assistant. You complete power system analysis tasks from natural-language requests. In this setting you have no tools: the user message gives you the full network data tables, and you must work out the requested AC power-flow results yourself from that data.

## Rules
- Never fabricate a numerical result. Every voltage, power, loss, or loading value you report must come from a solver output (tool-using methods) or from your own explicit computation on the data given (methods without tools).
- If the request is ambiguous, state the interpretation you are using in `summary`.
- Bus and line identifiers in the request are MATPOWER 1-based ids; use them as given, unless the request itself states a different indexing convention for that identifier (e.g. "(0-based)"), in which case convert it to the MATPOWER 1-based id.
- If you cannot complete the request, say so: set `converged` to false, leave the result arrays empty, and explain why in `cannot_answer`. Do not guess.
- Always reply in English, and only with the JSON object described under Output.

[user]   (complete message, stored at run time)
System base: 100 MVA. Every per-unit quantity below (r_pu, x_pu, b_pu) is defined on this base. Line and transformer impedances (r_pu, x_pu, b_pu) are already in per unit on this base, not ohms per km; do not convert them further. Branch thermal ratings are the rating_mva column (MVA). loading_percent of a branch is 100 * sqrt(p_from_mw^2 + q_from_mvar^2) / rating_mva on its from side (hv side for a transformer); a branch is overloaded above 100 %.

You are a power systems expert. Based on the following IEEE case300 test system data, calculate the AC power flow results.

## System Data (from pandapower network tables)

### Node Data (Bus Table: net.bus)

      name type zone  in_service
0        1    b  1.0        True
1        2    b  1.0        True
2        3    b  1.0        True
3        4    b  1.0        True
4        5    b  1.0        True
5        6    b  1.0        True
6        7    b  1.0        True
7        8    b  1.0        True
8        9    b  1.0        True
9       10    b  1.0        True
10      11    b  1.0        True
11      12    b  1.0        True
12      13    b  1.0        True
13      14    b  1.0        True
14      15    b  1.0        True
15      16    b  1.0        True
16      17    b  1.0        True
18      19    b  1.0        True
19      20    b  1.0        True
20      21    b  1.0        True
21      22    b  1.0        True
22      23    b  1.0        True
23      24    b  1.0        True
24      25    b  1.0        True
25      26    b  1.0        True
26      27    b  1.0        True
32      33    b  1.0        True
33      34    b  1.0        True
34      35    b  1.0        True
35      36    b  1.0        True
36      37    b  1.0        True
37      38    b  1.0        True
38      39    b  1.0        True
39      40    b  1.0        True
40      41    b  1.0        True
41      42    b  1.0        True
42      43    b  1.0        True
43      44    b  1.0        True
44      45    b  1.0        True
45      46    b  1.0        True
46      47    b  1.0        True
47      48    b  1.0        True
48      49    b  1.0        True
50      51    b  1.0        True
51      52    b  1.0        True
52      53    b  1.0        True
53      54    b  1.0        True
54      55    b  1.0        True
56      57    b  1.0        True
57      58    b  1.0        True
58      59    b  1.0        True
59      60    b  1.0        True
60      61    b  1.0        True
61      62    b  1.0        True
62      63    b  1.0        True
63      64    b  1.0        True
68      69    b  1.0        True
69      70    b  1.0        True
70      71    b  1.0        True
71      72    b  1.0        True
72      73    b  1.0        True
73      74    b  1.0        True
75      76    b  1.0        True
76      77    b  1.0        True
77      78    b  1.0        True
78      79    b  1.0        True
79      80    b  1.0        True
80      81    b  1.0        True
83      84    b  1.0        True
84      85    b  1.0        True
85      86    b  1.0        True
86      87    b  1.0        True
87      88    b  1.0        True
88      89    b  1.0        True
89      90    b  1.0        True
90      91    b  1.0        True
91      92    b  1.0        True
93      94    b  1.0        True
96      97    b  1.0        True
97      98    b  1.0        True
98      99    b  1.0        True
99     100    b  1.0        True
101    102    b  1.0        True
102    103    b  1.0        True
103    104    b  1.0        True
104    105    b  1.0        True
106    107    b  1.0        True
107    108    b  1.0        True
108    109    b  1.0        True
109    110    b  1.0        True
111    112    b  1.0        True
112    113    b  1.0        True
113    114    b  1.0        True
114    115    b  2.0        True
115    116    b  2.0        True
116    117    b  2.0        True
117    118    b  2.0        True
118    119    b  2.0        True
119    120    b  2.0        True
120    121    b  2.0        True
121    122    b  2.0        True
122    123    b  2.0        True
123    124    b  2.0        True
124    125    b  2.0        True
125    126    b  2.0        True
126    127    b  2.0        True
127    128    b  2.0        True
128    129    b  2.0        True
129    130    b  2.0        True
130    131    b  2.0        True
131    132    b  2.0        True
132    133    b  2.0        True
133    134    b  2.0        True
134    135    b  2.0        True
135    136    b  2.0        True
136    137    b  2.0        True
137    138    b  2.0        True
138    139    b  2.0        True
139    140    b  2.0        True
140    141    b  2.0        True
141    142    b  2.0        True
142    143    b  2.0        True
143    144    b  2.0        True
144    145    b  2.0        True
145    146    b  2.0        True
146    147    b  2.0        True
147    148    b  2.0        True
148    149    b  2.0        True
149    150    b  2.0        True
150    151    b  2.0        True
151    152    b  2.0        True
152    153    b  2.0        True
153    154    b  2.0        True
154    155    b  2.0        True
155    156    b  2.0        True
156    157    b  2.0        True
157    158    b  2.0        True
158    159    b  2.0        True
159    160    b  2.0        True
160    161    b  2.0        True
161    162    b  2.0        True
162    163    b  2.0        True
163    164    b  2.0        True
164    165    b  2.0        True
165    166    b  2.0        True
166    167    b  2.0        True
167    168    b  2.0        True
168    169    b  2.0        True
169    170    b  2.0        True
170    171    b  2.0        True
171    172    b  2.0        True
172    173    b  2.0        True
173    174    b  2.0        True
174    175    b  2.0        True
175    176    b  2.0        True
176    177    b  2.0        True
177    178    b  2.0        True
178    179    b  2.0        True
179    180    b  2.0        True
180    181    b  2.0        True
181    182    b  2.0        True
182    183    b  2.0        True
183    184    b  2.0        True
184    185    b  2.0        True
185    186    b  2.0        True
186    187    b  2.0        True
187    188    b  2.0        True
188    189    b  3.0        True
189    190    b  3.0        True
190    191    b  3.0        True
191    192    b  3.0        True
192    193    b  3.0        True
193    194    b  3.0        True
194    195    b  3.0        True
195    196    b  3.0        True
196    197    b  3.0        True
197    198    b  3.0        True
198    199    b  3.0        True
199    200    b  3.0        True
200    201    b  1.0        True
201    202    b  3.0        True
202    203    b  3.0        True
203    204    b  3.0        True
204    205    b  3.0        True
205    206    b  3.0        True
206    207    b  1.0        True
207    208    b  3.0        True
208    209    b  3.0        True
209    210    b  3.0        True
210    211    b  3.0        True
211    212    b  3.0        True
212    213    b  3.0        True
213    214    b  3.0        True
214    215    b  3.0        True
215    216    b  3.0        True
216    217    b  3.0        True
217    218    b  3.0        True
218    219    b  3.0        True
219    220    b  3.0        True
220    221    b  3.0        True
...

### Load Data (Load Table: net.load)

      bus         p_mw      q_mvar  in_service
0       1    83.216747   45.306896        True
1       2    54.455204   14.586215        True
2       3    20.474511    0.000000        True
3       5   386.381604  142.293509        True
4       6   122.393759   41.817868        True
5       8    68.597935   15.243986        True
6       9    91.150881   40.827999        True
7      10   151.569390   32.691437        True
8      11    85.541904   21.643132        True
9      13    52.907132    9.121919        True
10     14   162.544349   60.954131        True
11     15   137.115838   24.890799        True
12     17   505.325160  198.166729        True
13     20   617.586157  122.496428        True
14     21    69.868148    0.907379        True
15     22    77.864229   22.109596        True
16     23    20.268701    6.756234        True
17     25    43.394790   11.571944        True
18     26    25.818050    8.298659        True
19     27    69.392982   13.074040        True
20     33    49.738374    5.426004        True
21     37    80.185728   30.187568        True
22     38   162.099164   18.824419        True
23     40    42.772084  -19.526386        True
24     41    89.846771    0.000000        True
25     43    41.452746    9.566018        True
26     44   179.991954   26.768034        True
27     47    61.567343   12.525770        True
28     48    41.699589   19.324200        True
29     49    91.965235   25.990175        True
30     52    63.340121   29.074154        True
31     53    70.835794    3.079817        True
32     54     9.497255    0.949725        True
33     55    24.178693   10.990315        True
34     57   107.058681   21.848710        True
35     58    14.989577    1.070684        True
36     59   201.715114   98.081661        True
37     61   204.630569   99.160188        True
38     63    69.020084   29.580036        True
39     70    54.113344   19.326194        True
40     71   123.637740   40.502018        True
41     72    61.827843   20.609281        True
42     73   227.839312   72.216925        True
43     76   210.513031  108.292761        True
44     77    71.178183   26.932285        True
45     79    48.281938   14.082232        True
46     80    27.928159    6.982040        True
47     84    34.646720   12.173172        True
48     89    47.648081    0.000000        True
49     90    66.817453    0.000000        True
50     91    16.134468    0.000000        True
51     92    15.392924    0.000000        True
52     94    66.062437    0.000000        True
53     97    37.194883    0.000000        True
54     98    65.893527    0.000000        True
55     99    89.102075    0.000000        True
56    102    83.581471    0.000000        True
57    103    33.854053    0.000000        True
58    104     8.625104    0.000000        True
59    105    47.153438    0.000000        True
60    107     4.528365    0.000000        True
61    108   112.310966    0.000000        True
62    109    31.002417    0.000000        True
63    110    68.405651    0.000000        True
64    112    19.377142    0.000000        True
65    113    25.760319    0.000000        True
66    114    19.957070    0.000000        True
67    118    13.822189  637.193091        True
68    120   811.109194  224.438194        True
69    121   549.241441   56.464073        True
70    122   243.029775   12.517466        True
71    123    70.418374    1.263920        True
72    124   268.406973   57.585143        True
73    125   551.313993   88.565787        True
74    126    60.410711    5.321151        True
75    127   392.127776   38.100651        True
76    135   160.521417   39.466259        True
77    136    57.465476   18.946950        True
78    137   292.906697  106.842428        True
79    138  1046.489245  138.820002        True
80    139   633.629240   88.708094        True
81    140   389.437283  115.213970        True
82    141   155.237768   62.095107        True
83    142    53.518697   23.207222        True
84    143    92.080719   36.523637        True
85    145    24.788668   14.460056        True
86    148    67.761342   26.889421        True
87    152    18.601646    9.847930        True
88    154    63.054197    4.503871        True
89    155   183.895134   45.973784        True
90    156    78.928926   52.619284        True
91    157   120.702596  -23.749580        True
92    159    35.041720   17.520860        True
93    161    33.631730   14.413599        True
94    162    91.995381   25.975166        True
95    163     0.000000    0.422335        True
96    167   297.890579   95.058781        True
97    170   453.993117  193.168512        True
98    171   756.732943  288.482137        True
99    172    26.819032    0.000000        True
100   173   179.276056   47.149054        True
101   175   184.066871   86.804263        True
102   176     5.234718    4.187775        True
103   177    25.802213   11.058091        True
104   178   412.373088  167.496416        True
105   179    66.609704   26.103803        True
106   180    70.574282   50.062044        True
107   181    67.153764    0.000000        True
108   182   261.959609   96.860844        True
109   183    37.034127    3.703413        True
110   184   123.950061   15.040724        True
111   186    61.159995   24.852640        True
112   187    57.646238   23.424809        True
113   188   194.864425   46.528417        True
114   189     7.451972    2.129135        True
115   191   499.748455   54.164965        True
116   192   723.497068   65.114736        True
117   196    10.347247    3.104174        True
118   197    42.251381   13.756264        True
119   198    60.562387   19.872033        True
120   199    33.265681   11.405376        True
121   200    26.971228   11.987213        True
122   201    38.094889   13.008011        True
123   202    38.569677   13.194890        True
124   203    38.396739   12.798913        True
125   204    75.579262   25.193087        True
126   205     0.000000   -5.338443        True
127   206    12.651367    2.108561        True
128   208     7.145249    2.041500        True
129   209    35.713858   12.217899        True
130   211    88.832054    6.477337        True
131   214    23.771461   17.288335        True
132   215    48.778322   26.983752        True
133   216   188.859229  112.671699        True
134   217    98.263852   73.697889        True
135   218   121.509465   89.045104        True
136   220   312.631043  109.695103        True
137   221   183.581820   75.150453        True
138   222   296.462959  169.923891        True
139   223   429.544191  232.837038        True
140   224   180.361607  103.212712        True
141   225   405.954934   39.605359        True
142   227   548.218653  376.008704        True
143   228   226.301715  150.191273        True
144   229   101.940283   48.846385        True
145   231   158.191319  106.455793        True
146   232   480.758185  153.456296        True
147   233   400.403818  210.112894        True
148   234   546.630904  233.178218        True
149   235   265.515802  154.966472        True
150   238   236.784154  138.356231        True
151   243     8.417258    3.156472        True
152   245    65.117886   32.025190        True
153   246    73.705797   31.588199        True
154   247    63.715943   31.335710        True
155   248    27.783106   13.412534        True
156   249    27.398979   13.227094        True
157   319   118.871483  -24.636577        True
158   320     2.393214  -12.564374        True
159   322     2.167257   -3.521792        True
160   324    25.776381   -1.252294        True
161   526   145.084132  -34.848150        True
162   528    27.205627  -19.847522        True
163   531    12.636665    2.256547        True
164   562    51.049556   17.589352        True
165   609    31.258008    0.633608        True
166  1190   108.050263   31.420857        True
167  9002     3.832741    0.000000        True
168  9003     2.911306    1.009826        True
169  9004     0.782527    0.254776        True
170  9021     4.597785    1.510009        True
171  9022     1.580028    0.547330        True
172  9024     1.413817    0.492218        True
173  9025     0.477801    0.169885        True
174  9026     0.418958    0.148963        True
175  9031     1.712519    0.595659        True
176  9032     1.259063    0.434784        True
177  9033     1.979234    0.680689        True
178  9034     1.531118    0.533422        True
179  9035     1.609075    0.562207        True
180  9036     2.997746    0.989355        True
181  9037     1.849440    0.636366        True
182  9038     2.338220    0.806595        True
183  9041     1.044604    0.361992        True
184  9042     0.867203    0.299774        True
185  9043     1.580309    0.513601        True
186  9051    35.226097    0.000000        True
187  9052    27.309242   20.937086        True
188  9053    25.973045    0.000000        True
189  9071     1.090145    0.374069        True
190  9072     1.074191    0.368595        True
191  9121     3.703742    1.218336        True
192  9533     1.239855    0.427177        True

### Generator Data (Generator Table: net.gen)

     bus         p_mw   vm_pu  min_p_mw  max_p_mw  min_q_mvar  max_q_mvar  in_service
0      8     0.000000  1.0153       0.0    100.00      -10.00       10.00        True
1     10     0.000000  1.0205       0.0    100.00      -20.00       20.00        True
2     20     0.000000  1.0010       0.0    100.00      -20.00       20.00        True
3     63     0.000000  0.9583       0.0    100.00      -25.00       25.00        True
4     76     0.000000  0.9632       0.0    100.00       12.00       35.00        True
5     84   386.078644  1.0250       0.0    475.00     -240.00      240.00        True
6     91   156.853413  1.0520       0.0    255.00      -11.00       96.00        True
7     92   309.016084  1.0520       0.0    390.00     -153.00      153.00        True
8     98    62.491647  1.0000       0.0    168.00      -30.00       56.00        True
9    108   113.565887  0.9900       0.0    217.00      -24.00       77.00        True
10   119  1831.437658  1.0435       0.0   2030.00     -500.00     1500.00        True
11   124   229.075919  1.0233       0.0    340.00      -60.00      120.00        True
12   125     0.000000  1.0103       0.0    100.00      -25.00      200.00        True
13   138     0.000000  1.0550       0.0    100.00     -125.00      350.00        True
14   141   253.195017  1.0510       0.0    381.00      -50.00       75.00        True
15   143   687.635584  1.0435       0.0    796.00     -100.00      300.00        True
16   146    91.282766  1.0528       0.0    184.00      -15.00       35.00        True
17   147   204.699842  1.0528       0.0    317.00      -50.00      100.00        True
18   149   104.334529  1.0735       0.0    203.00      -25.00       50.00        True
19   152   402.248132  1.0535       0.0    472.00      -50.00      175.00        True
20   153   222.237059  1.0435       0.0    316.00      -50.00       90.00        True
21   156     0.000000  0.9630       0.0    100.00      -10.00       15.00        True
22   170   194.175509  0.9290       0.0    305.00      -40.00       90.00        True
23   171     0.000000  0.9829       0.0    100.00      -50.00      150.00        True
24   176   247.510134  1.0522       0.0    328.00      -45.00       90.00        True
25   177    90.756980  1.0077       0.0    184.00      -15.00       35.00        True
26   185   204.565013  1.0522       0.0    300.00      -50.00       80.00        True
27   186  1092.818068  1.0650       0.0   1300.00     -100.00      400.00        True
28   187  1144.865921  1.0650       0.0   1300.00     -100.00      400.00        True
29   190   471.107111  1.0551       0.0    575.00     -300.00      300.00        True
30   191  2025.342348  1.0435       0.0   2073.00    -1000.00     1000.00        True
31   198   395.881598  1.0150       0.0    524.00     -260.00      260.00        True
32   213   250.272893  1.0100       0.0    372.00     -150.00      150.00        True
33   220   108.954255  1.0080       0.0    200.00      -60.00       60.00        True
34   221   461.697775  1.0000       0.0    550.00     -320.00      320.00        True
35   222   231.177411  1.0500       0.0    350.00     -300.00      300.00        True
36   227   326.087038  1.0000       0.0    403.00     -300.00      300.00        True
37   230   375.124181  1.0400       0.0    445.00     -250.00      250.00        True
38   233   325.356924  1.0000       0.0    400.00     -500.00      500.00        True
39   236   603.576312  1.0165       0.0    700.00     -300.00      300.00        True
40   238   256.534050  1.0100       0.0    350.00     -200.00      200.00        True
41   239   539.346024  1.0000       0.0    650.00     -400.00      400.00        True
42   241   573.487661  1.0500       0.0    675.43     -600.00      600.00        True
43   242   160.732571  0.9930       0.0    270.00       40.00      100.00        True
44   243    86.961470  1.0100       0.0    184.00       40.00       80.00        True
45  7001   428.751154  1.0507       0.0    567.00     -210.00      210.00        True
46  7002   580.248071  1.0507       0.0    723.00     -280.00      280.00        True
47  7003  1330.409302  1.0323       0.0   1310.00     -420.00      420.00        True
48  7011   255.867147  1.0145       0.0    334.00     -100.00      100.00        True
49  7012   394.071245  1.0507       0.0    472.00     -224.00      224.00        True
50  7017   307.070425  1.0507       0.0    430.00        0.00      350.00        True
51  7023   182.165033  1.0507       0.0    285.00        0.00      120.00        True
52  7024   438.766006  1.0290       0.0    510.00     -224.00      224.00        True
53  7039   518.259211  1.0500       0.0    600.00     -200.00      200.00        True
54  7044    36.750542  1.0145       0.0    137.00        0.00       42.00        True
55  7055    44.313140  0.9967       0.0    145.00        0.00       25.00        True
56  7057   156.895085  1.0212       0.0    265.00      -90.00       90.00        True
57  7061   374.062711  1.0145       0.0    500.00     -150.00      150.00        True
58  7062   424.511458  1.0017       0.0    500.00        0.00      150.00        True
59  7071   118.378440  0.9893       0.0    216.00        0.00       87.00        True
60  7130  1259.136260  1.0507       0.0   1392.00     -100.00      600.00        True
61  7139   746.366834  1.0507       0.0    800.00     -125.00      325.00        True
62  7166   560.862449  1.0145       0.0    653.00     -200.00      300.00        True
63  9002     0.000000  0.9945       0.0    100.00       -2.00        2.00        True
64  9051     0.000000  1.0000       0.0    100.00      -17.35       17.35        True
65  9053     0.000000  1.0000       0.0    100.00      -12.80       12.83        True
66  9054    48.640844  1.0000       0.0    150.00      -38.00       38.00        True
67  9055     8.581603  1.0000       0.0    108.00       -6.00        6.00        True

### Balanced Node/External Grid (External Grid Table: net.ext_grid)

    bus   vm_pu  va_degree  in_service
0  7049  1.0507        0.0        True

### Line Data (Line Table: net.line)

     from_bus  to_bus     r_pu     x_pu   b_pu  rating_mva  parallel  in_service
0        9001    9005  0.00080  0.00348  0.000       66.23         1        True
1        9006    9007  0.05558  0.24666  0.000       56.34         1        True
2        9006    9003  0.11118  0.49332  0.000       56.34         1        True
3        9006    9003  0.11118  0.49332  0.000       56.34         1        True
4        9012    9002  0.07622  0.43286  0.000       56.34         1        True
5        9012    9002  0.07622  0.43286  0.000       56.34         1        True
6        9002    9021  0.05370  0.07026  0.000       56.34         1        True
7        9021    9023  1.10680  0.95278  0.000       56.34         1        True
8        9007    9003  0.05580  0.24666  0.000       56.34         1        True
9        9003    9044  0.07378  0.06352  0.000       56.34         1        True
10       9044    9004  0.03832  0.02894  0.000       56.34         1        True
11       9012    9121  0.23552  0.99036  0.000       56.34         1        True
12          1       5  0.00100  0.00600  0.000      519.61         1        True
13          2       6  0.00100  0.00900  0.000      194.01         1        True
14          2       8  0.00600  0.02700  0.054      473.75         1        True
15          3       7  0.00000  0.00300  0.000      378.99         1        True
16          3      19  0.00800  0.06900  0.139      181.99         1        True
17          3     150  0.00100  0.00700  0.000      201.21         1        True
18          4      16  0.00200  0.01900  1.127      854.17         1        True
19          5       9  0.00600  0.02900  0.018      158.85         1        True
20          7      12  0.00100  0.00900  0.070      252.94         1        True
21          7     131  0.00100  0.00700  0.014      131.70         1        True
22          8      11  0.01300  0.05950  0.033       56.34         1        True
23          8      14  0.01300  0.04200  0.081      393.32         1        True
24          9      11  0.00600  0.02700  0.013       56.34         1        True
25         11      13  0.00800  0.03400  0.018      191.35         1        True
26         12      21  0.00200  0.01500  0.118      551.22         1        True
27         13      20  0.00600  0.03400  0.016      120.41         1        True
28         14      15  0.01400  0.04200  0.097      187.10         1        True
29         15      37  0.06500  0.24800  0.121       56.34         1        True
30         15      89  0.09900  0.24800  0.035       56.34         1        True
31         15      90  0.09600  0.36300  0.048       56.34         1        True
32         16      42  0.00200  0.02200  1.280      529.21         1        True
33         19      21  0.00200  0.01800  0.036       83.03         1        True
34         19      87  0.01300  0.08000  0.151      251.03         1        True
35         20      22  0.01600  0.03300  0.015       56.34         1        True
36         20      27  0.06900  0.18600  0.098       56.34         1        True
37         21      24  0.00400  0.03400  0.280      295.95         1        True
38         22      23  0.05200  0.11100  0.050      120.33         1        True
39         23      25  0.01900  0.03900  0.018      158.81         1        True
40         24     319  0.00700  0.06800  0.134      150.16         1        True
41         25      26  0.03600  0.07100  0.034       98.48         1        True
42         26      27  0.04500  0.12000  0.065       57.61         1        True
43         26     320  0.04300  0.13000  0.014       56.34         1        True
44         33      38  0.00250  0.01200  0.013      108.07         1        True
45         33      40  0.00600  0.02900  0.020       60.70         1        True
46         33      41  0.00700  0.04300  0.026       85.32         1        True
47         34      42  0.00100  0.00800  0.042      149.14         1        True
48         35      72  0.01200  0.06000  0.008       64.62         1        True
49         35      76  0.00600  0.01400  0.002      144.56         1        True
50         35      77  0.01000  0.02900  0.003       60.88         1        True
51         36      88  0.00400  0.02700  0.043      147.01         1        True
52         37      38  0.00800  0.04700  0.008       63.92         1        True
53         37      40  0.02200  0.06400  0.007       56.34         1        True
54         37      41  0.01000  0.03600  0.020       56.34         1        True
55         37      49  0.01700  0.08100  0.048      239.90         1        True
56         37      89  0.10200  0.25400  0.033       56.34         1        True
57         37      90  0.04700  0.12700  0.016       56.34         1        True
58         38      41  0.00800  0.03700  0.020      132.13         1        True
59         38      43  0.03200  0.08700  0.040      107.73         1        True
60         39      42  0.00060  0.00640  0.404      625.34         1        True
61         40      48  0.02600  0.15400  0.022       56.34         1        True
62         41      49  0.06500  0.19100  0.020       88.38         1        True
63         41      51  0.03100  0.08900  0.036       57.05         1        True
64         42      46  0.00200  0.01400  0.806      724.60         1        True
65         43      44  0.02600  0.07200  0.035       56.34         1        True
66         43      48  0.09500  0.26200  0.032       56.34         1        True
67         43      53  0.01300  0.03900  0.016       56.34         1        True
68         44      47  0.02700  0.08400  0.039      141.96         1        True
69         44      54  0.02800  0.08400  0.037       56.34         1        True
70         45      60  0.00700  0.04100  0.312      279.42         1        True
71         45      74  0.00900  0.05400  0.411      302.70         1        True
72         46      81  0.00500  0.04200  0.690      416.45         1        True
73         47      73  0.05200  0.14500  0.073       56.34         1        True
74         47     113  0.04300  0.11800  0.013       56.34         1        True
75         48     107  0.02500  0.06200  0.007       56.34         1        True
76         49      51  0.03100  0.09400  0.043      133.82         1        True
77         51      52  0.03700  0.10900  0.049       83.42         1        True
78         52      55  0.02700  0.08000  0.036       56.34         1        True
79         53      54  0.02500  0.07300  0.035       56.34         1        True
80         54      55  0.03500  0.10300  0.047       88.46         1        True
81         55      57  0.06500  0.16900  0.082       57.16         1        True
82         57      58  0.04600  0.08000  0.036       56.34         1        True
83         57      63  0.15900  0.53700  0.071       56.34         1        True
84         58      59  0.00900  0.02600  0.005       56.34         1        True
85         59      61  0.00200  0.01300  0.015      325.26         1        True
86         60      62  0.00900  0.06500  0.485      285.66         1        True
87         62      64  0.01600  0.10500  0.203      247.90         1        True
88         62     144  0.00100  0.00700  0.013      137.00         1        True
89         63     526  0.02650  0.17200  0.026      190.13         1        True
90         69     211  0.05100  0.23200  0.028       56.34         1        True
91         69      79  0.05100  0.15700  0.023       56.34         1        True
92         70      71  0.03200  0.10000  0.062      105.51         1        True
93         70     528  0.02000  0.12340  0.028       56.34         1        True
94         71      72  0.03600  0.13100  0.068       56.34         1        True
95         71      73  0.03400  0.09900  0.047       75.95         1        True
96         72      77  0.01800  0.08700  0.011       64.72         1        True
97         72     531  0.02560  0.19300  0.000       56.34         1        True
98         73      76  0.02100  0.05700  0.030       56.34         1        True
99         73      79  0.01800  0.05200  0.018       56.34         1        True
100        74      88  0.00400  0.02700  0.050      138.03         1        True
101        74     562  0.02860  0.20130  0.379       65.76         1        True
102        76      77  0.01600  0.04300  0.004       87.88         1        True
103        77      78  0.00100  0.00600  0.007      327.98         1        True
104        77      80  0.01400  0.07000  0.038       56.34         1        True
105        77     552  0.08910  0.26760  0.029       56.34         1        True
106        77     609  0.07820  0.21270  0.022       56.34         1        True
107        78      79  0.00600  0.02200  0.011      109.56         1        True
108        78      84  0.00000  0.03600  0.000      437.81         1        True
109        79     211  0.09900  0.37500  0.051       56.34         1        True
110        80     211  0.02200  0.10700  0.058       56.34         1        True
111        81     194  0.00350  0.03300  0.530      128.91         1        True
112        81     195  0.00350  0.03300  0.530      161.27         1        True
113        85      86  0.00800  0.06400  0.128      122.93         1        True
114        86      87  0.01200  0.09300  0.183      157.26         1        True
115        86     323  0.00600  0.04800  0.092       56.34         1        True
116        89      91  0.04700  0.11900  0.014       56.34         1        True
117        90      92  0.03200  0.17400  0.024       71.13         1        True
118        91      94  0.10000  0.25300  0.031       56.34         1        True
119        91      97  0.02200  0.07700  0.039      125.94         1        True
120        92     103  0.01900  0.14400  0.017       98.85         1        True
121        92     105  0.01700  0.09200  0.012      178.56         1        True
122        94      97  0.27800  0.42700  0.043       56.34         1        True
123        97     100  0.02200  0.05300  0.007       56.34         1        True
124        97     102  0.03800  0.09200  0.012       56.34         1        True
125        97     103  0.04800  0.12200  0.015       56.34         1        True
126        98     100  0.02400  0.06400  0.007       56.34         1        True
127        98     102  0.03400  0.12100  0.015       56.34         1        True
128        99     107  0.05300  0.13500  0.017       65.22         1        True
129        99     108  0.00200  0.00400  0.002       56.34         1        True
130        99     109  0.04500  0.35400  0.044       56.34         1        True
131        99     110  0.05000  0.17400  0.022       58.52         1        True
132       100     102  0.01600  0.03800  0.004       56.34         1        True
133       102     104  0.04300  0.06400  0.027       63.92         1        True
134       103     105  0.01900  0.06200  0.008       56.34         1        True
135       104     108  0.07600  0.13000  0.044       56.34         1        True
136       104     322  0.04400  0.12400  0.015       56.34         1        True
137       105     107  0.01200  0.08800  0.011       83.52         1        True
138       105     110  0.15700  0.40000  0.047       64.99         1        True
139       108     324  0.07400  0.20800  0.026       56.34         1        True
140       109     110  0.07000  0.18400  0.021       56.34         1        True
141       109     113  0.10000  0.27400  0.031       56.34         1        True
142       109     114  0.10900  0.39300  0.036       56.34         1        True
143       110     112  0.14200  0.40400  0.050       56.34         1        True
144       112     114  0.01700  0.04200  0.006       56.34         1        True
145       115     122  0.00360  0.01990  0.004      109.02         1        True
146       116     120  0.00200  0.10490  0.001      115.81         1        True
147       117     118  0.00010  0.00180  0.017      707.57         1        True
148       118     119  0.00000  0.02710  0.000      840.07         1        True
149       118    1201  0.00000  0.61630  0.000       56.34         1        True
150      1201     120  0.00000 -0.36970  0.000       56.34         1        True
151       118     121  0.00220  0.29150  0.000       61.13         1        True
152       119     120  0.00000  0.03390  0.000      989.38         1        True
153       119     121  0.00000  0.05820  0.000      715.16         1        True
154       122     123  0.08080  0.23440  0.029       56.34         1        True
155       122     125  0.09650  0.36690  0.054       56.34         1        True
156       123     124  0.03600  0.10760  0.117       84.43         1        True
157       123     125  0.04760  0.14140  0.149       56.34         1        True
158       125     126  0.00060  0.01970  0.000      629.62         1        True
159       127     128  0.00590  0.05770  0.095      215.71         1        True
160       127     134  0.00490  0.03360  0.208      184.49         1        True
161       127     168  0.00590  0.05770  0.095      214.85         1        True
162       128     130  0.00780  0.07730  0.126      294.10         1        True
163       128     133  0.00260  0.01930  0.030       77.07         1        True
164       129     130  0.00760  0.07520  0.122      291.52         1        True
165       129     133  0.00210  0.01860  0.030      124.60         1        True
166       130     132  0.00160  0.01640  0.026      360.76         1        True
167       130     151  0.00170  0.01650  0.026      221.81         1        True
168       130     167  0.00790  0.07930  0.127      351.78         1        True
169       130     168  0.00780  0.07840  0.125      295.62         1        True
170       133     137  0.00170  0.01170  0.289      903.85         1        True
171       133     168  0.00260  0.01930  0.030       74.09         1        True
172       133     169  0.00210  0.01860  0.030      169.39         1        True
173       134     135  0.00430  0.02930  0.180       97.20         1        True
174       134     184  0.00390  0.03810  0.258      100.28         1        True
175       135     136  0.00910  0.06230  0.385      308.18         1        True
176       136     137  0.01250  0.08900  0.540       91.35         1        True
177       136     152  0.00560  0.03900  0.953      462.93         1        True
178       137     140  0.00150  0.01140  0.284      414.01         1        True
179       137     181  0.00050  0.00340  0.021      202.57         1        True
180       137     186  0.00070  0.01510  0.126      600.61         1        True
181       137     188  0.00050  0.00340  0.021      562.18         1        True
182       139     172  0.05620  0.22480  0.081       56.34         1        True
183       140     141  0.01200  0.08360  0.123       99.08         1        True
184       140     142  0.01520  0.11320  0.684       56.34         1        True
185       140     145  0.04680  0.33690  0.519       56.34         1        True
186       140     146  0.04300  0.30310  0.463       64.25         1        True
187       140     147  0.04890  0.34920  0.538       80.99         1        True
188       140     182  0.00130  0.00890  0.119      202.46         1        True
189       141     146  0.02910  0.22670  0.342       56.34         1        True
190       142     143  0.00600  0.05700  0.767      285.01         1        True
191       143     145  0.00750  0.07730  0.119      136.60         1        True
192       143     149  0.01270  0.09090  0.135       59.79         1        True
193       145     146  0.00850  0.05880  0.087      197.00         1        True
194       145     149  0.02180  0.15110  0.223      103.44         1        True
195       146     147  0.00730  0.05040  0.074      191.02         1        True
196       152     153  0.01370  0.09570  0.141       56.34         1        True
197       153     161  0.00550  0.02880  0.190      134.28         1        True
198       154     156  0.17460  0.31610  0.040       56.34         1        True
199       154     183  0.08040  0.30540  0.045       56.96         1        True
...

### Transformer Data (Transformer Table: net.trafo)

    hv_bus  lv_bus     r_pu     x_pu  rating_mva  shift_degree tap_side  tap_neutral  tap_min  tap_max  tap_step_percent  in_service
0       37    9001  0.00006  0.00046      104.90           0.0       hv          0.0      NaN      NaN              0.82        True
1     9001    9006  0.02439  0.43682       56.34           0.0       hv          0.0      NaN      NaN              3.32        True
2     9001    9012  0.03624  0.64898       56.34           0.0       hv          0.0      NaN      NaN              2.04        True
3     9005    9051  0.01578  0.37486       56.34           0.0       hv          0.0      NaN      NaN              4.35        True
4     9005    9052  0.01578  0.37486       56.34           0.0       hv          0.0      NaN      NaN              6.09        True
5     9005    9053  0.01602  0.38046       56.34           0.0       hv          0.0      NaN      NaN              4.35        True
6     9005    9054  0.00000  0.15200       75.50           0.0       hv          0.0      NaN      NaN              4.35        True
7     9005    9055  0.00000  0.80000       56.34           0.0       hv          0.0      NaN      NaN              4.35        True
8     9053    9533  0.00000  0.75000       56.34           0.0       hv          0.0      NaN      NaN              4.17        True
9        3       1  0.00000  0.05200       70.31           0.0       hv          0.0      NaN      NaN              5.30        True
10       3       2  0.00000  0.05200       56.34           0.0       hv          0.0      NaN      NaN              4.40        True
11       4       3  0.00000  0.00500      854.17           0.0       hv          0.0      NaN      NaN              2.90        True
12       7       5  0.00000  0.03900      133.97           0.0       hv          0.0      NaN      NaN              5.20        True
13       7       6  0.00000  0.03900       56.34           0.0       hv          0.0      NaN      NaN              4.10        True
14      10      11  0.00000  0.08900       56.34           0.0       hv          0.0      NaN      NaN              4.60        True
15      12      10  0.00000  0.05300      166.68           0.0       hv          0.0      NaN      NaN              1.50        True
16      15      17  0.01940  0.03110      306.66           0.0       hv          0.0      NaN      NaN              4.39        True
17      16      15  0.00100  0.03800      367.85           0.0       hv          0.0      NaN      NaN              2.90        True
18      21      20  0.00000  0.01400      692.56           0.0       hv          0.0      NaN      NaN              4.80        True
19      24      23  0.00000  0.06400       86.96           0.0       hv          0.0      NaN      NaN              5.70        True
20      36      35  0.00000  0.04700      147.01           0.0       hv          0.0      NaN      NaN              1.00        True
21      45      44  0.00000  0.02000      300.70           0.0       hv          0.0      NaN      NaN              0.80        True
22      62      61  0.00000  0.05900      102.73           0.0       hv          0.0      NaN      NaN              2.50        True
23      64      63  0.00000  0.03800      243.32           0.0       hv          0.0      NaN      NaN              1.70        True
24      87      94  0.00000  0.04600       92.86           0.0       hv          0.0      NaN      NaN              1.50        True
25     114     207  0.00000  0.14900       56.34           0.0       hv          0.0      NaN      NaN              3.30        True
26     116     124  0.00520  0.01740      115.81           0.0       hv          0.0      NaN      NaN              1.00        True
27     121     115  0.00000  0.02800      106.73           0.0       hv          0.0      NaN      NaN              5.00        True
28     130     131  0.00000  0.01800      129.95           0.0       hv          0.0      NaN      NaN              5.22        True
29     130     150  0.00000  0.01400      195.49           0.0       hv          0.0      NaN      NaN              5.22        True
30     132     170  0.00100  0.04020      166.35           0.0       hv          0.0      NaN      NaN              5.00        True
31     141     174  0.00240  0.06030      119.53           0.0       hv          0.0      NaN      NaN              2.50        True
32     143     144  0.00000  0.08330      142.70           0.0       hv          0.0      NaN      NaN              3.50        True
33     143     148  0.00130  0.03710      286.02           0.0       hv          0.0      NaN      NaN              4.35        True
34     151     170  0.00100  0.03920      220.03           0.0       hv          0.0      NaN      NaN              5.00        True
35     153     183  0.00270  0.06390      107.66           0.0       hv          0.0      NaN      NaN              7.30        True
36     155     156  0.00080  0.02560      131.44           0.0       hv          0.0      NaN      NaN              5.00        True
37     159     117  0.00000  0.01600      612.41           0.0       hv          0.0      NaN      NaN              5.06        True
38     160     124  0.00120  0.03960       56.34           0.0       hv          0.0      NaN      NaN              2.50        True
39     163     137  0.00130  0.03842      283.02           0.0       hv          0.0      NaN      NaN              2.00        True
40     164     155  0.00090  0.02310      296.68           0.0       hv          0.0      NaN      NaN              4.40        True
41     182     139  0.00030  0.01310      190.09           0.0       hv          0.0      NaN      NaN              5.00        True
42     210     189  0.00000  0.25200       56.34           0.0       hv          0.0      NaN      NaN              3.00        True
43     196     193  0.00000  0.23700       56.34           0.0       hv          0.0      NaN      NaN              3.00        True
44     195     212  0.00080  0.03660      157.19           0.0       hv          0.0      NaN      NaN              1.50        True
45      69     201  0.00000  0.09800       61.13           0.0       hv          0.0      NaN      NaN              3.00        True
46     211     202  0.00000  0.12800       56.34           0.0       hv          0.0      NaN      NaN              1.00        True
47    2040     204  0.02002  0.20412       56.34           0.0       hv          0.0      NaN      NaN              5.00        True
48     198     209  0.02600  0.21100       60.13           0.0       hv          0.0      NaN      NaN              3.00        True
49     219     218  0.00100  0.03540      222.33           0.0       hv          0.0      NaN      NaN              3.00        True
50     229     230  0.00100  0.03320      429.93           0.0       hv          0.0      NaN      NaN              2.00        True
51     234     236  0.00050  0.01600      802.50           0.0       hv          0.0      NaN      NaN              7.00        True
52     238     239  0.00050  0.01600      686.00           0.0       hv          0.0      NaN      NaN              2.00        True
53     119    1190  0.00100  0.02300      131.60           0.0       hv          0.0      NaN      NaN              2.23        True
54     120    1200  0.00000  0.02300      133.12           0.0       hv          0.0      NaN      NaN              7.16        True
55      62    7062  0.00000  0.03214      506.70           0.0       hv          0.0      NaN      NaN              5.00        True
56      17    7017  0.00000  0.01654      482.50           0.0       hv          0.0      NaN      NaN              5.80        True
57      39    7039  0.00000  0.03159      625.34           0.0       hv          0.0      NaN      NaN              3.50        True
58      57    7057  0.00000  0.05347      207.06           0.0       hv          0.0      NaN      NaN              5.00        True
59      44    7044  0.00000  0.18181       56.34           0.0       hv          0.0      NaN      NaN              5.80        True
60      55    7055  0.00000  0.19607       56.60           0.0       hv          0.0      NaN      NaN              5.80        True
61      71    7071  0.00000  0.06896      147.72           0.0       hv          0.0      NaN      NaN              4.35        True

## Task
Load the 300-bus test case (case300).

## Operations
The solver operations available to a tool-based assistant, for the `formulation` field of your answer (* = required argument). You cannot call them here; you declare which ones the request needs, then compute the results yourself from the data above.

- load_case(case_name: string in {case14, case30, case57, case118, case300}*): Load IEEE test case.
- run_powerflow((none)): Run power flow on current case.
- disconnect_line(from_bus: integer*, to_bus: integer*): Disconnect line/branch between two buses and recompute.
- reconnect_line(from_bus: integer*, to_bus: integer*): Reconnect line/branch between two buses and recompute.
- get_most_loaded_branch((none)): Get most loaded branch.
- run_n1_contingency(top_k: integer (How many worst outages to return), criteria: string in {max_violations, max_overload, min_voltage} (Ranking criterion), max_candidates: integer (How many branches to scan; 0 scans every branch of the network. Leave 0 unless the request asks to limit the scan)): Run N-1 contingency analysis.
- recommend_remedial_actions(max_actions: integer, allow_load_shed: boolean, allow_voltage_control: boolean, include_best_comparison: boolean): Recommend remedial actions.
- apply_remedial_action(action_index: integer*, confirmed: boolean): Apply one remedial action by index.
- get_status((none)): Get current network status.
- generate_plot(plot_type: string in {voltage_heatmap, flow_diagram, violation_overview, comparison}*): Generate one plot.
- set_active_load(bus_id: integer*, p_mw: number*): Set a bus's active load (MW) and recompute. Use this when the request states only an active-power value. This tool has no reactive-power argument: the bus's present reactive load is always left unchanged. If the request also states a reactive-power value, use set_load instead.
- set_load(bus_id: integer*, p_mw: number*, q_mvar: number*): Set a bus's active and reactive load (MW, Mvar) and recompute. Use this only when the request states both values. If the request states only an active-power value, use set_active_load instead -- do not invent a reactive-power value here to fill this in.

## Output Requirements
Reply with exactly one JSON object and nothing else (no prose before or after, no Markdown fences), with these fields, all present:

{
  "formulation": [{"tool": "load_case", "args": {"case_name": "case14"}}, {"tool": "run_powerflow", "args": {}}],
  "converged": true,
  "summary": "one sentence on what was done and the state of the network",
  "answer": "the specific thing the request asked for, with its numbers (e.g. 'Worst outage: line 1-5, 9 voltage violations' or 'Lowest voltage: bus 14 at 1.0357 p.u.')",
  "bus_voltages": [{"bus_id": 1, "vm_pu": 1.06, "va_deg": 0.0}],
  "line_flows": [{"line_id": 0, "from_bus": 1, "to_bus": 2, "p_from_mw": 156.9, "loading_percent": 44.8}],
  "total_generation_mw": 0.0,
  "total_load_mw": 0.0,
  "total_loss_mw": 0.0,
  "violations": {"voltage": [{"bus_id": 1, "vm_pu": 1.06}], "thermal": [{"line_id": 0, "loading_percent": 101.2}]},
  "next_step": "one suggested next action for the operator",
  "cannot_answer": null
}

- `formulation` is the ordered list of solver operations the request needs, using only the operation names and argument names of the operations catalogue: with tools, the operations you actually ran; without tools, the operations a solver-based assistant would run. Copy identifiers and values from the request; do not add arguments the request does not give.
- `bus_voltages` covers every bus of the network state you are reporting (the state after the last change; for a contingency scan, the base case the scan was run on), one entry per bus, `bus_id` in MATPOWER 1-based numbering; `line_flows` covers every branch, `line_id` as the branch index (transformers: 100000 + transformer index), with `from_bus` and `to_bus`.
- Voltage limits are 0.95 to 1.05 p.u.; a line is overloaded above 100 % loading. List the violations of the reported state.
- All numbers are finite (no NaN or Infinity). Copy them from the solver outputs when you have tools; otherwise they are your own computation on the data above.
- If you could not complete the request: `converged` false, empty arrays, zeros in the totals, and the reason in `cannot_answer` (a string); otherwise `cannot_answer` is null.

[assistant]
{
  "formulation": [
    {
      "tool": "load_case",
      "args": {
        "case_name": "case300"
      }
    },
    {
      "tool": "run_powerflow",
      "args": {}
    }
  ],
  "converged": false,
  "summary": "The case300 AC power-flow calculation could not be completed without access to a numerical power-flow solver.",
  "answer": "No reliable AC power-flow results are available.",
  "bus_voltages": [],
  "line_flows": [],
  "total_generation_mw": 0.0,
  "total_load_mw": 0.0,
  "total_loss_mw": 0.0,
  "violations": {
    "voltage": [],
    "thermal": []
  },
  "next_step": "Run the declared load_case and run_powerflow operations with an AC Newton-Raphson power-flow solver.",
  "cannot_answer": "A full nonlinear AC solution for this 300-bus network, including every bus voltage and every branch flow, cannot be computed reliably here without numerical solver access; reporting numerical results would require fabrication."
}
